%chk=ch4_rhf.chk
#P rhf 6-31G int=noraff output=matrix scf=conven nosymm

test

0 1
 C                  0.00000000    0.00000000    0.00000000
 H                  0.00000000    0.00000000    3.07000022
 H                  1.00880575    0.00000000   -0.35666669
 H                 -0.50440280   -0.87365153   -0.35666648
 H                 -0.50440288    0.87365140   -0.35666670

ch4_rhf.mat

